@<TRIPOS>MOLECULE
LIG
   28    29     1     0     0
SMALL
bcc


@<TRIPOS>ATOM
      1 C1           0.5270    -1.7340     0.1610 c3       900 LIG      -0.070400
      2 C2          -0.9120    -1.4690    -0.3340 c3       900 LIG      -0.075900
      3 C3          -0.6520     1.0000     0.2170 c3       900 LIG      -0.075900
      4 C4           0.7880     0.7400     0.7130 c3       900 LIG      -0.070400
      5 C5           1.0160    -0.7040     1.1950 c3       900 LIG      -0.019400
      6 C6          -1.5620    -0.2360     0.3160 c3       900 LIG      -0.076400
      7 C7           5.2140    -1.3390     2.0480 ca       900 LIG      -0.133000
      8 C8           4.5150    -0.3050     2.6920 ca       900 LIG      -0.129000
      9 C9           3.1540    -0.0990     2.4160 ca       900 LIG      -0.127500
     10 C10          2.4910    -0.9270     1.4950 ca       900 LIG      -0.072300
     11 C11          3.1900    -1.9610     0.8510 ca       900 LIG      -0.127500
     12 C12          4.5520    -2.1670     1.1270 ca       900 LIG      -0.129000
     13 H1           1.2040    -1.7280    -0.6950 hc       900 LIG       0.042950
     14 H2           0.5940    -2.7360     0.5860 hc       900 LIG       0.042950
     15 H3          -1.5340    -2.3480    -0.1560 hc       900 LIG       0.038450
     16 H4          -1.0950     1.8250     0.7760 hc       900 LIG       0.038450
     17 H5           1.0330     1.4340     1.5180 hc       900 LIG       0.042950
     18 H6           1.4870     0.9610    -0.0940 hc       900 LIG       0.042950
     19 H8           0.4920    -0.8600     2.1380 hc       900 LIG       0.051700
     20 H9          -1.7790    -0.4480     1.3640 hc       900 LIG       0.038700
     21 H10         -2.5250    -0.0300    -0.1540 hc       900 LIG       0.038700
     22 H11         -0.8940    -1.3330    -1.4170 hc       900 LIG       0.038450
     23 H12         -0.6140     1.3320    -0.8210 hc       900 LIG       0.038450
     24 H7           6.2840    -1.5010     2.2660 ha       900 LIG       0.130000
     25 H13          5.0360     0.3460     3.4160 ha       900 LIG       0.130000
     26 H14          2.6050     0.7140     2.9210 ha       900 LIG       0.131000
     27 H15          2.6700    -2.6120     0.1280 ha       900 LIG       0.131000
     28 H16          5.1010    -2.9800     0.6220 ha       900 LIG       0.130000
@<TRIPOS>BOND
     1     1     2 1   
     2     1     5 1   
     3     1    13 1   
     4     1    14 1   
     5     2     6 1   
     6     2    15 1   
     7     2    22 1   
     8     3     4 1   
     9     3     6 1   
    10     3    16 1   
    11     3    23 1   
    12     4     5 1   
    13     4    17 1   
    14     4    18 1   
    15     5    10 1   
    16     5    19 1   
    17     6    20 1   
    18     6    21 1   
    19     7     8 ar  
    20     7    12 ar  
    21     7    24 1   
    22     8     9 ar  
    23     8    25 1   
    24     9    10 ar  
    25     9    26 1   
    26    10    11 ar  
    27    11    12 ar  
    28    11    27 1   
    29    12    28 1   
@<TRIPOS>SUBSTRUCTURE
     1 LIG         1 TEMP              0 ****  ****    0 ROOT
