@<TRIPOS>MOLECULE
LIG
   28    29     1     0     0
SMALL
bcc


@<TRIPOS>ATOM
      1 C1           0.6350    -1.7010     3.0400 c3       900 LIG      -0.074900
      2 C2          -0.8620    -1.4630     3.3540 c3       900 LIG      -0.070400
      3 C3          -0.6140     0.9640     2.7420 c3       900 LIG      -0.070400
      4 C4           0.8680     0.7590     2.3580 c3       900 LIG      -0.074900
      5 C5           1.2350    -0.6990     2.0370 c3       900 LIG      -0.075400
      6 C6          -1.5040    -0.2900     2.5760 c3       900 LIG      -0.018400
      7 C7          -2.6520    -1.0510    -1.5770 ca       900 LIG      -0.133000
      8 C8          -2.9040     0.1970    -0.9780 ca       900 LIG      -0.129000
      9 C9          -2.5310     0.4260     0.3600 ca       900 LIG      -0.127500
     10 C10         -1.8890    -0.5820     1.1170 ca       900 LIG      -0.073300
     11 C11         -1.6490    -1.8360     0.5040 ca       900 LIG      -0.127500
     12 C12         -2.0260    -2.0670    -0.8330 ca       900 LIG      -0.129000
     13 H1           1.2040    -1.6550     3.9700 hc       900 LIG       0.038450
     14 H2           0.7750    -2.7130     2.6600 hc       900 LIG       0.038450
     15 H3          -1.4430    -2.3790     3.2430 hc       900 LIG       0.043950
     16 H4          -1.0260     1.8240     2.2160 hc       900 LIG       0.043950
     17 H5           1.1110     1.3830     1.4970 hc       900 LIG       0.038450
     18 H6           1.4990     1.1200     3.1720 hc       900 LIG       0.038450
     19 H7           2.3190    -0.8090     2.0000 hc       900 LIG       0.037200
     20 H8           0.8860    -0.9360     1.0310 hc       900 LIG       0.037200
     21 H10         -2.4560    -0.0750     3.0670 hc       900 LIG       0.048700
     22 H11         -0.9300    -1.2270     4.4170 hc       900 LIG       0.043950
     23 H12         -0.6400     1.2480     3.7950 hc       900 LIG       0.043950
     24 H9          -2.9370    -1.2280    -2.6040 ha       900 LIG       0.130000
     25 H13         -3.3840     0.9800    -1.5470 ha       900 LIG       0.130000
     26 H14         -2.7430     1.3870     0.8030 ha       900 LIG       0.131500
     27 H15         -1.1670    -2.6380     1.0410 ha       900 LIG       0.131500
     28 H16         -1.8310    -3.0270    -1.2900 ha       900 LIG       0.130000
@<TRIPOS>BOND
     1     1     2 1   
     2     1     5 1   
     3     1    13 1   
     4     1    14 1   
     5     2     6 1   
     6     2    15 1   
     7     2    22 1   
     8     3     4 1   
     9     3     6 1   
    10     3    16 1   
    11     3    23 1   
    12     4     5 1   
    13     4    17 1   
    14     4    18 1   
    15     5    19 1   
    16     5    20 1   
    17     6    10 1   
    18     6    21 1   
    19     7     8 ar  
    20     7    12 ar  
    21     7    24 1   
    22     8     9 ar  
    23     8    25 1   
    24     9    10 ar  
    25     9    26 1   
    26    10    11 ar  
    27    11    12 ar  
    28    11    27 1   
    29    12    28 1   
@<TRIPOS>SUBSTRUCTURE
     1 LIG         1 TEMP              0 ****  ****    0 ROOT
