@<TRIPOS>MOLECULE
LIG
   28    29     1     0     0
SMALL
bcc


@<TRIPOS>ATOM
      1 C1          -1.4700     0.6390     0.1910 c3         1 LIG      -0.146400
      2 C2          -2.9550     0.6900    -0.2040 c3         1 LIG       0.149600
      3 C3          -3.8260     1.2480     0.9380 c3         1 LIG       0.154600
      4 C4          -3.6250     0.4270     2.2410 c3         1 LIG      -0.068400
      5 C5          -2.1250     0.3130     2.6280 c3         1 LIG       0.154600
      6 C6          -1.2910    -0.2250     1.4490 c3         1 LIG       0.149600
      7 F1          -3.1260     1.4070    -1.3160 f          1 LIG      -0.223300
      8 F2          -3.5030     2.5280     1.1290 f          1 LIG      -0.215300
      9 F3          -1.6340     1.5010     2.9840 f          1 LIG      -0.215300
     10 F4          -0.0040    -0.3090     1.7870 f          1 LIG      -0.223300
     11 C7          -6.1660     1.7610     5.5270 ca         1 LIG      -0.119000
     12 C8          -6.3410     0.4760     4.9770 ca         1 LIG      -0.131000
     13 C9          -5.5200     0.0430     3.9150 ca         1 LIG      -0.111500
     14 C10         -4.5160     0.8930     3.3930 ca         1 LIG      -0.100300
     15 C11         -4.3520     2.1800     3.9530 ca         1 LIG      -0.111500
     16 C12         -5.1700     2.6120     5.0140 ca         1 LIG      -0.131000
     17 H1          -1.1010     1.6490     0.3780 hc         1 LIG       0.086700
     18 H2          -0.8740     0.2420    -0.6290 hc         1 LIG       0.086700
     19 H3          -3.2950    -0.3150    -0.4610 h1         1 LIG       0.055700
     20 H4          -4.8760     1.2400     0.6470 h1         1 LIG       0.073700
     21 H5          -3.9500    -0.5870     2.0070 hc         1 LIG       0.068700
     22 H6          -2.0090    -0.3360     3.4970 h1         1 LIG       0.073700
     23 H7          -1.5930    -1.2500     1.2300 h1         1 LIG       0.055700
     24 H8          -6.7950     2.0930     6.3410 ha         1 LIG       0.134000
     25 H9          -7.1070    -0.1780     5.3720 ha         1 LIG       0.135000
     26 H10         -5.6730    -0.9470     3.5100 ha         1 LIG       0.142500
     27 H11         -3.5940     2.8490     3.5720 ha         1 LIG       0.142500
     28 H12         -5.0320     3.5980     5.4310 ha         1 LIG       0.135000
@<TRIPOS>BOND
     1     1     2 1   
     2     1     6 1   
     3     1    17 1   
     4     1    18 1   
     5     2     3 1   
     6     2     7 1   
     7     2    19 1   
     8     3     4 1   
     9     3     8 1   
    10     3    20 1   
    11     4     5 1   
    12     4    14 1   
    13     4    21 1   
    14     5     6 1   
    15     5     9 1   
    16     5    22 1   
    17     6    10 1   
    18     6    23 1   
    19    11    12 ar  
    20    11    16 ar  
    21    11    24 1   
    22    12    13 ar  
    23    12    25 1   
    24    13    14 ar  
    25    13    26 1   
    26    14    15 ar  
    27    15    16 ar  
    28    15    27 1   
    29    16    28 1   
@<TRIPOS>SUBSTRUCTURE
     1 LIG         1 TEMP              0 ****  ****    0 ROOT
