@<TRIPOS>MOLECULE
LIG
   28    29     1     0     0
SMALL
bcc


@<TRIPOS>ATOM
      1 C1          -0.1240     2.2160     0.9340 c3         1 LIG      -0.069400
      2 C2          -1.6020     2.4750     0.5690 c3         1 LIG      -0.076900
      3 C3          -2.4160     2.9260     1.7900 c3         1 LIG      -0.075400
      4 C4          -2.2650     1.9340     2.9530 c3         1 LIG      -0.076900
      5 C5          -0.7840     1.7400     3.3160 c3         1 LIG      -0.069400
      6 C6           0.0460     1.2260     2.1140 c3         1 LIG      -0.017400
      7 C7          -0.6690    -3.0110     1.2660 ca         1 LIG      -0.135000
      8 C8          -0.3510    -2.5820     2.5670 ca         1 LIG      -0.128500
      9 C9          -0.1190    -1.2160     2.8210 ca         1 LIG      -0.132000
     10 C10         -0.2160    -0.2550     1.7880 ca         1 LIG      -0.064300
     11 C11         -0.5170    -0.7070     0.4790 ca         1 LIG      -0.132000
     12 C12         -0.7470    -2.0720     0.2220 ca         1 LIG      -0.128500
     13 H1           0.3180     3.1700     1.2240 hc         1 LIG       0.040450
     14 H2           0.4480     1.8940     0.0640 hc         1 LIG       0.040450
     15 H3          -2.0580     1.5770     0.1540 hc         1 LIG       0.041450
     16 H4          -1.6610     3.2320    -0.2140 hc         1 LIG       0.041450
     17 H5          -3.4680     3.0250     1.5210 hc         1 LIG       0.038200
     18 H6          -2.0860     3.9160     2.1080 hc         1 LIG       0.038200
     19 H7          -2.8170     2.2930     3.8220 hc         1 LIG       0.041450
     20 H8          -2.7050     0.9730     2.6830 hc         1 LIG       0.041450
     21 H9          -0.3800     2.7010     3.6370 hc         1 LIG       0.040450
     22 H10         -0.6910     1.0880     4.1830 hc         1 LIG       0.040450
     23 H11          1.0970     1.2600     2.4080 hc         1 LIG       0.050700
     24 H12         -0.8470    -4.0590     1.0680 ha         1 LIG       0.130000
     25 H13         -0.2820    -3.3000     3.3700 ha         1 LIG       0.129000
     26 H14          0.1370    -0.9160     3.8260 ha         1 LIG       0.131500
     27 H15         -0.5770    -0.0240    -0.3530 ha         1 LIG       0.131500
     28 H16         -0.9830    -2.4000    -0.7810 ha         1 LIG       0.129000
@<TRIPOS>BOND
     1     1     2 1   
     2     1     6 1   
     3     1    13 1   
     4     1    14 1   
     5     2     3 1   
     6     2    15 1   
     7     2    16 1   
     8     3     4 1   
     9     3    17 1   
    10     3    18 1   
    11     4     5 1   
    12     4    19 1   
    13     4    20 1   
    14     5     6 1   
    15     5    21 1   
    16     5    22 1   
    17     6    10 1   
    18     6    23 1   
    19     7     8 ar  
    20     7    12 ar  
    21     7    24 1   
    22     8     9 ar  
    23     8    25 1   
    24     9    10 ar  
    25     9    26 1   
    26    10    11 ar  
    27    11    12 ar  
    28    11    27 1   
    29    12    28 1   
@<TRIPOS>SUBSTRUCTURE
     1 LIG         1 TEMP              0 ****  ****    0 ROOT
