@<TRIPOS>MOLECULE
LIG
   28    29     1     0     0
SMALL
bcc


@<TRIPOS>ATOM
      1 F            0.8750     0.0340    -0.2330 f          1 LIG      -0.237300
      2 C            2.2280     0.0560    -0.0620 c3         1 LIG       0.141600
      3 C1           2.7690    -1.3520    -0.2940 c3         1 LIG      -0.105400
      4 C2           2.6150    -1.7910    -1.7490 c3         1 LIG      -0.080400
      5 C3           3.2210    -0.7760    -2.7180 c3         1 LIG      -0.074400
      6 C4           2.6330     0.6260    -2.4880 c3         1 LIG      -0.044400
      7 C5           2.8350     1.0680    -1.0270 c3         1 LIG       0.150600
      8 F1           4.1690     1.1590    -0.7450 f          1 LIG      -0.235300
      9 C6           3.1630     1.6340    -3.4940 ca         1 LIG      -0.085300
     10 C7           2.2840     2.2300    -4.4120 ca         1 LIG      -0.119000
     11 C8           2.7480     3.1550    -5.3490 ca         1 LIG      -0.131000
     12 C9           4.0980     3.4980    -5.3820 ca         1 LIG      -0.127000
     13 C10          4.9830     2.9140    -4.4800 ca         1 LIG      -0.131000
     14 C11          4.5200     1.9880    -3.5430 ca         1 LIG      -0.119000
     15 H            2.4260     0.3560     0.9720 h1         1 LIG       0.061700
     16 H1           2.2340    -2.0610     0.3480 hc         1 LIG       0.059700
     17 H2           3.8280    -1.3890    -0.0140 hc         1 LIG       0.059700
     18 H3           1.5500    -1.9220    -1.9790 hc         1 LIG       0.049700
     19 H4           3.0930    -2.7670    -1.8910 hc         1 LIG       0.049700
     20 H5           3.0290    -1.1020    -3.7480 hc         1 LIG       0.053700
     21 H6           4.3100    -0.7650    -2.5910 hc         1 LIG       0.053700
     22 H7           1.5470     0.5470    -2.6460 hc         1 LIG       0.072700
     23 H8           2.3920     2.0570    -0.8640 h1         1 LIG       0.067700
     24 H9           1.2260     1.9770    -4.4090 ha         1 LIG       0.136500
     25 H10          2.0560     3.6080    -6.0540 ha         1 LIG       0.131500
     26 H11          4.4590     4.2180    -6.1110 ha         1 LIG       0.131000
     27 H12          6.0370     3.1800    -4.5030 ha         1 LIG       0.131500
     28 H13          5.2320     1.5470    -2.8490 ha         1 LIG       0.136500
@<TRIPOS>BOND
     1     1     2 1   
     2     2     3 1   
     3     2     7 1   
     4     2    15 1   
     5     3     4 1   
     6     3    16 1   
     7     3    17 1   
     8     4     5 1   
     9     4    18 1   
    10     4    19 1   
    11     5     6 1   
    12     5    20 1   
    13     5    21 1   
    14     6     7 1   
    15     6     9 1   
    16     6    22 1   
    17     7     8 1   
    18     7    23 1   
    19     9    10 ar  
    20     9    14 ar  
    21    10    11 ar  
    22    10    24 1   
    23    11    12 ar  
    24    11    25 1   
    25    12    13 ar  
    26    12    26 1   
    27    13    14 ar  
    28    13    27 1   
    29    14    28 1   
@<TRIPOS>SUBSTRUCTURE
     1 LIG         1 TEMP              0 ****  ****    0 ROOT
