@<TRIPOS>MOLECULE
LIG
   28    29     1     0     0
SMALL
bcc


@<TRIPOS>ATOM
      1 C1           1.7900     1.6660     1.0440 c3         1 LIG       0.154600
      2 C2           0.3260     1.7820     0.5460 c3         1 LIG      -0.068400
      3 C3          -0.5940     2.2120     1.7170 c3         1 LIG       0.154600
      4 C4          -0.4580     1.2950     2.9480 c3         1 LIG       0.149600
      5 C5           1.0010     1.1810     3.4090 c3         1 LIG      -0.146400
      6 C6           1.8910     0.7120     2.2490 c3         1 LIG       0.149600
      7 F1           2.2420     2.8690     1.4150 f          1 LIG      -0.215300
      8 F2          -0.2940     3.5100     2.0760 f          1 LIG      -0.215300
      9 F3          -1.2420     1.7750     3.9770 f          1 LIG      -0.223300
     10 F4           3.1570     0.5990     2.6560 f          1 LIG      -0.223300
     11 C7          -0.3360     4.3000    -2.9660 ca         1 LIG      -0.119000
     12 C8          -1.4040     3.6060    -2.3700 ca         1 LIG      -0.131000
     13 C9          -1.1720     2.7890    -1.2470 ca         1 LIG      -0.111500
     14 C10          0.1240     2.6670    -0.6930 ca         1 LIG      -0.100300
     15 C11          1.1920     3.3590    -1.3130 ca         1 LIG      -0.111500
     16 C12          0.9630     4.1670    -2.4420 ca         1 LIG      -0.131000
     17 H1           2.4390     1.3110     0.2440 h1         1 LIG       0.073700
     18 H2           0.0180     0.7820     0.2330 hc         1 LIG       0.068700
     19 H3          -1.6380     2.2160     1.4060 h1         1 LIG       0.073700
     20 H4          -0.8440     0.3030     2.7110 h1         1 LIG       0.055700
     21 H5           1.3470     2.1480     3.7800 hc         1 LIG       0.086700
     22 H6           1.0760     0.4860     4.2440 hc         1 LIG       0.086700
     23 H7           1.5880    -0.2910     1.9440 h1         1 LIG       0.055700
     24 H8          -0.5080     4.9300    -3.8260 ha         1 LIG       0.134000
     25 H9          -2.4020     3.7000    -2.7770 ha         1 LIG       0.135000
     26 H10         -2.0070     2.2590    -0.8120 ha         1 LIG       0.142500
     27 H11          2.2020     3.2940    -0.9410 ha         1 LIG       0.142500
     28 H12          1.7900     4.6890    -2.9030 ha         1 LIG       0.135000
@<TRIPOS>BOND
     1     1     2 1   
     2     1     6 1   
     3     1     7 1   
     4     1    17 1   
     5     2     3 1   
     6     2    14 1   
     7     2    18 1   
     8     3     4 1   
     9     3     8 1   
    10     3    19 1   
    11     4     5 1   
    12     4     9 1   
    13     4    20 1   
    14     5     6 1   
    15     5    21 1   
    16     5    22 1   
    17     6    10 1   
    18     6    23 1   
    19    11    12 ar  
    20    11    16 ar  
    21    11    24 1   
    22    12    13 ar  
    23    12    25 1   
    24    13    14 ar  
    25    13    26 1   
    26    14    15 ar  
    27    15    16 ar  
    28    15    27 1   
    29    16    28 1   
@<TRIPOS>SUBSTRUCTURE
     1 LIG         1 TEMP              0 ****  ****    0 ROOT
