@<TRIPOS>MOLECULE
LIG
   28    29     1     0     0
SMALL
bcc


@<TRIPOS>ATOM
      1 F            0.8770    -0.0470    -0.2650 f          1 LIG      -0.231300
      2 C            2.2300    -0.0190    -0.0830 c3         1 LIG       0.143100
      3 C1           2.7600    -1.4290    -0.3060 c3         1 LIG      -0.141400
      4 C2           2.5620    -1.8530    -1.7540 c3         1 LIG       0.143100
      5 F1           3.1010    -3.0910    -1.9260 f          1 LIG      -0.231300
      6 C3           3.2170    -0.8700    -2.7210 c3         1 LIG       0.154100
      7 F2           4.5580    -0.8550    -2.4670 f          1 LIG      -0.220800
      8 C4           2.6350     0.5380    -2.5140 c3         1 LIG      -0.070400
      9 C5           2.8270     0.9950    -1.0560 c3         1 LIG       0.154100
     10 F3           4.1500     1.1260    -0.7620 f          1 LIG      -0.220800
     11 C6           3.1470     1.5510    -3.5250 ca         1 LIG      -0.099300
     12 C7           2.2470     2.1800    -4.4000 ca         1 LIG      -0.112500
     13 C8           2.6970     3.1140    -5.3370 ca         1 LIG      -0.132000
     14 C9           4.0500     3.4320    -5.4110 ca         1 LIG      -0.120000
     15 C10          4.9550     2.8170    -4.5490 ca         1 LIG      -0.132000
     16 C11          4.5060     1.8840    -3.6130 ca         1 LIG      -0.112500
     17 H            2.4210     0.2880     0.9500 h1         1 LIG       0.071200
     18 H1           2.2340    -2.1360     0.3460 hc         1 LIG       0.083700
     19 H2           3.8230    -1.4860    -0.0420 hc         1 LIG       0.083700
     20 H3           1.4920    -1.9400    -1.9780 h1         1 LIG       0.071200
     21 H4           3.0920    -1.2130    -3.7530 h1         1 LIG       0.074700
     22 H5           1.5510     0.4520    -2.6760 hc         1 LIG       0.080700
     23 H6           2.3570     1.9730    -0.9060 h1         1 LIG       0.074700
     24 H7           1.1840     1.9520    -4.3650 ha         1 LIG       0.142500
     25 H8           1.9900     3.5930    -6.0090 ha         1 LIG       0.134500
     26 H9           4.4010     4.1580    -6.1390 ha         1 LIG       0.133000
     27 H10          6.0120     3.0630    -4.6030 ha         1 LIG       0.134500
     28 H11          5.2350     1.4180    -2.9500 ha         1 LIG       0.142500
@<TRIPOS>BOND
     1     1     2 1   
     2     2     3 1   
     3     2     9 1   
     4     2    17 1   
     5     3     4 1   
     6     3    18 1   
     7     3    19 1   
     8     4     5 1   
     9     4     6 1   
    10     4    20 1   
    11     6     7 1   
    12     6     8 1   
    13     6    21 1   
    14     8     9 1   
    15     8    11 1   
    16     8    22 1   
    17     9    10 1   
    18     9    23 1   
    19    11    12 ar  
    20    11    16 ar  
    21    12    13 ar  
    22    12    24 1   
    23    13    14 ar  
    24    13    25 1   
    25    14    15 ar  
    26    14    26 1   
    27    15    16 ar  
    28    15    27 1   
    29    16    28 1   
@<TRIPOS>SUBSTRUCTURE
     1 LIG         1 TEMP              0 ****  ****    0 ROOT
