@<TRIPOS>MOLECULE
C6 H6 F6
 18 18 0 0 0
SMALL
GASTEIGER

@<TRIPOS>ATOM
      1 F           2.2062    3.6793    1.1876 F       1  LIG1       -0.2393
      2 F           1.7753    5.3168    3.3204 F       1  LIG1       -0.2393
      3 F           2.3473    2.6891    3.7830 F       1  LIG1       -0.2393
      4 F           4.8846    1.9179    4.3684 F       1  LIG1       -0.2393
      5 F           4.0219    1.7070    1.7793 F       1  LIG1       -0.2393
      6 F           4.6431    3.6442   -0.0346 F       1  LIG1       -0.2393
      7 C           3.1893    4.5538    1.5873 C.3     1  LIG1        0.1681
      8 C           3.0548    4.8459    3.0780 C.3     1  LIG1        0.1681
      9 C           3.3386    3.6507    3.9603 C.3     1  LIG1        0.1681
     10 C           4.6782    3.0653    3.6183 C.3     1  LIG1        0.1681
     11 C           4.8678    2.7288    2.1433 C.3     1  LIG1        0.1681
     12 C           4.5485    3.9661    1.3061 C.3     1  LIG1        0.1681
     13 H           3.0921    5.4088    1.0771 H       1  LIG1        0.0712
     14 H           3.7040    5.5692    3.3140 H       1  LIG1        0.0712
     15 H           3.3439    3.9438    4.9160 H       1  LIG1        0.0712
     16 H           5.3793    3.7308    3.8752 H       1  LIG1        0.0712
     17 H           5.8153    2.4517    1.9825 H       1  LIG1        0.0712
     18 H           5.2362    4.6636    1.5078 H       1  LIG1        0.0712
@<TRIPOS>BOND
     1     6    12    1
     2    13     7    1
     3     1     7    1
     4    12    18    1
     5    12     7    1
     6    12    11    1
     7     7     8    1
     8     5    11    1
     9    17    11    1
    10    11    10    1
    11     8    14    1
    12     8     2    1
    13     8     9    1
    14    10    16    1
    15    10     9    1
    16    10     4    1
    17     3     9    1
    18     9    15    1
