@<TRIPOS>MOLECULE
LIG
   22    23     1     0     0
SMALL
bcc


@<TRIPOS>ATOM
      1 C           -1.4430    -0.0810     0.0950 ca         1 LIG      -0.128000
      2 C1          -0.8470     1.1380    -0.2190 ca         1 LIG      -0.131000
      3 C2           0.5440     1.2320    -0.3170 ca         1 LIG      -0.119000
      4 C3           1.3640     0.1110    -0.1040 cp         1 LIG      -0.037000
      5 C4           0.7420    -1.1080     0.2110 ca         1 LIG      -0.119000
      6 C5          -0.6490    -1.2050     0.3100 ca         1 LIG      -0.131000
      7 C6           2.8290     0.2120    -0.2090 cp         1 LIG      -0.037000
      8 C7           3.5570    -0.6530    -1.0430 ca         1 LIG      -0.119000
      9 C8           4.9480    -0.5590    -1.1430 ca         1 LIG      -0.131000
     10 C9           5.6360     0.4040    -0.4080 ca         1 LIG      -0.128000
     11 C10          4.9340     1.2710     0.4260 ca         1 LIG      -0.131000
     12 C11          3.5430     1.1750     0.5230 ca         1 LIG      -0.119000
     13 H           -2.5240    -0.1550     0.1720 ha         1 LIG       0.131000
     14 H1          -1.4630     2.0170    -0.3910 ha         1 LIG       0.132000
     15 H2           0.9880     2.1920    -0.5750 ha         1 LIG       0.135000
     16 H3           1.3440    -1.9960     0.3950 ha         1 LIG       0.135000
     17 H4          -1.1100    -2.1570     0.5590 ha         1 LIG       0.132000
     18 H5           3.0380    -1.4050    -1.6350 ha         1 LIG       0.135000
     19 H6           5.4920    -1.2350    -1.7970 ha         1 LIG       0.132000
     20 H7           6.7170     0.4780    -0.4850 ha         1 LIG       0.131000
     21 H8           5.4680     2.0210     1.0030 ha         1 LIG       0.132000
     22 H9           3.0160     1.8550     1.1900 ha         1 LIG       0.135000
@<TRIPOS>BOND
     1     1     2 ar  
     2     1     6 ar  
     3     1    13 1   
     4     2     3 ar  
     5     2    14 1   
     6     3     4 ar  
     7     3    15 1   
     8     4     5 ar  
     9     4     7 1   
    10     5     6 ar  
    11     5    16 1   
    12     6    17 1   
    13     7     8 ar  
    14     7    12 ar  
    15     8     9 ar  
    16     8    18 1   
    17     9    10 ar  
    18     9    19 1   
    19    10    11 ar  
    20    10    20 1   
    21    11    12 ar  
    22    11    21 1   
    23    12    22 1   
@<TRIPOS>SUBSTRUCTURE
     1 LIG         1 TEMP              0 ****  ****    0 ROOT
