@<TRIPOS>MOLECULE
mol_e
28   29    1
SMALL
USER_CHARGES


@<TRIPOS>ATOM
      1 C1         17.2106   15.3334   18.7065 C.3       1 LIG         0.0000 
      2 C2         15.7131   15.4261   18.3529 C.3       1 LIG         0.0000 
      3 C3         14.9046   15.9675   19.5485 C.3       1 LIG         0.0000 
      4 C4         15.1279   15.1127   20.8077 C.3       1 LIG         0.0000 
      5 C5         16.6220   15.0102   21.1556 C.3       1 LIG         0.0000 
      6 C6         17.4362   14.4779   19.9648 C.3       1 LIG         0.0000 
      7 H1         17.6206   16.3304   18.8699 H         1 LIG         0.0000 
      8 H2         15.1886   16.9993   19.7576 H         1 LIG         0.0000 
      9 H3         14.5782   15.5382   21.6479 H         1 LIG         0.0000 
     10 H4         18.4970   14.4605   20.2172 H         1 LIG         0.0000 
     11 C7         15.0196   17.7255   14.7259 C.ar      1 LIG         0.0000 
     12 C8         14.7011   16.3548   14.7673 C.ar      1 LIG         0.0000 
     13 C9         14.9272   15.6134   15.9432 C.ar      1 LIG         0.0000 
     14 C10        15.4730   16.2369   17.0861 C.ar      1 LIG         0.0000 
     15 C11        15.7901   17.6127   17.0380 C.ar      1 LIG         0.0000 
     16 C12        15.5641   18.3542   15.8618 C.ar      1 LIG         0.0000 
     17 H5         17.7630   14.9073   17.8682 H         1 LIG         0.0000 
     18 H6         15.3631   14.4108   18.1588 H         1 LIG         0.0000 
     19 H7         13.8428   15.9852   19.2995 H         1 LIG         0.0000 
     20 H8         14.7201   14.1137   20.6477 H         1 LIG         0.0000 
     21 H9         16.9984   15.9918   21.4472 H         1 LIG         0.0000 
     22 H10        16.7587   14.3593   22.0203 H         1 LIG         0.0000 
     23 H11        17.1520   13.4449   19.7599 H         1 LIG         0.0000 
     24 H12        14.8462   18.2938   13.8238 H         1 LIG         0.0000 
     25 H13        14.2831   15.8707   13.8967 H         1 LIG         0.0000 
     26 H14        14.6783   14.5622   15.9617 H         1 LIG         0.0000 
     27 H15        16.2082   18.1058   17.9034 H         1 LIG         0.0000 
     28 H16        15.8089   19.4060   15.8315 H         1 LIG         0.0000 
@<TRIPOS>BOND
     1    1    2 1    
     2    1    6 1    
     3    1    7 1    
     4    1   17 1    
     5    2    3 1    
     6    2   14 1    
     7    2   18 1    
     8    3    4 1    
     9    3    8 1    
    10    3   19 1    
    11    4    5 1    
    12    4    9 1    
    13    4   20 1    
    14    5    6 1    
    15    5   21 1    
    16    5   22 1    
    17    6   10 1    
    18    6   23 1    
    19   11   12 ar   
    20   11   16 ar   
    21   11   24 1    
    22   12   13 ar   
    23   12   25 1    
    24   13   14 ar   
    25   13   26 1    
    26   14   15 ar   
    27   15   16 ar   
    28   15   27 1    
    29   16   28 1    
@<TRIPOS>SUBSTRUCTURE
     1 LIG         1 GROUP             0 X     ****    0 ROOT    
