@<TRIPOS>MOLECULE
LIG
   28    29     1     0     0
SMALL
bcc


@<TRIPOS>ATOM
      1 C            0.8170     1.2100    -0.8900 c3         1 LIG      -0.077400
      2 C1          -0.5030     1.4730    -0.1780 c3         1 LIG      -0.076400
      3 C2          -1.3590     0.2110    -0.1290 c3         1 LIG      -0.067400
      4 C3          -0.6450    -0.9870     0.5200 c3         1 LIG      -0.015400
      5 C4           0.7890    -1.1780    -0.0170 c3         1 LIG      -0.067400
      6 C5           1.6080     0.0990    -0.2130 c3         1 LIG      -0.076400
      7 C6          -0.7990    -0.9780     2.0370 ca         1 LIG      -0.069300
      8 C7          -1.9090    -1.6330     2.6020 ca         1 LIG      -0.128000
      9 C8          -2.1150    -1.6500     3.9830 ca         1 LIG      -0.130500
     10 C9          -1.2160    -1.0060     4.8270 ca         1 LIG      -0.133000
     11 C10         -0.1180    -0.3440     4.2870 ca         1 LIG      -0.130500
     12 C11          0.0870    -0.3280     2.9040 ca         1 LIG      -0.128000
     13 H            1.4160     2.1280    -0.9090 hc         1 LIG       0.038700
     14 H1           0.6220     0.9360    -1.9340 hc         1 LIG       0.038700
     15 H2          -1.0500     2.2620    -0.7070 hc         1 LIG       0.039700
     16 H3          -0.3150     1.8440     0.8360 hc         1 LIG       0.039700
     17 H4          -1.6200    -0.0610    -1.1610 hc         1 LIG       0.041700
     18 H5          -2.3060     0.4300     0.3790 hc         1 LIG       0.041700
     19 H6          -1.1860    -1.8860     0.1860 hc         1 LIG       0.044700
     20 H7           0.7060    -1.6540    -1.0040 hc         1 LIG       0.041700
     21 H8           1.3480    -1.8840     0.6090 hc         1 LIG       0.041700
     22 H9           2.4940    -0.1330    -0.8160 hc         1 LIG       0.039700
     23 H10          1.9900     0.4610     0.7460 hc         1 LIG       0.039700
     24 H11         -2.6300    -2.1390     1.9630 ha         1 LIG       0.132000
     25 H12         -2.9780    -2.1640     4.3970 ha         1 LIG       0.129000
     26 H13         -1.3740    -1.0150     5.9020 ha         1 LIG       0.130000
     27 H14          0.5830     0.1670     4.9430 ha         1 LIG       0.129000
     28 H15          0.9490     0.2110     2.5290 ha         1 LIG       0.132000
@<TRIPOS>BOND
     1     1     2 1   
     2     1     6 1   
     3     1    13 1   
     4     1    14 1   
     5     2     3 1   
     6     2    15 1   
     7     2    16 1   
     8     3     4 1   
     9     3    17 1   
    10     3    18 1   
    11     4     5 1   
    12     4     7 1   
    13     4    19 1   
    14     5     6 1   
    15     5    20 1   
    16     5    21 1   
    17     6    22 1   
    18     6    23 1   
    19     7     8 ar  
    20     7    12 ar  
    21     8     9 ar  
    22     8    24 1   
    23     9    10 ar  
    24     9    25 1   
    25    10    11 ar  
    26    10    26 1   
    27    11    12 ar  
    28    11    27 1   
    29    12    28 1   
@<TRIPOS>SUBSTRUCTURE
     1 LIG         1 TEMP              0 ****  ****    0 ROOT
