@<TRIPOS>MOLECULE
mol_e
   28    29     1     0     0
SMALL
bcc


@<TRIPOS>ATOM
      1 C1          17.2110    15.3330    18.7060 c3         1 LIG      -0.075400
      2 C2          15.7130    15.4260    18.3530 c3         1 LIG      -0.076900
      3 C3          14.9050    15.9670    19.5490 c3         1 LIG      -0.069400
      4 C4          15.1280    15.1130    20.8080 c3         1 LIG      -0.017400
      5 C5          16.6220    15.0100    21.1560 c3         1 LIG      -0.069400
      6 C6          17.4360    14.4780    19.9650 c3         1 LIG      -0.076900
      7 H1          17.6210    16.3300    18.8700 hc         1 LIG       0.038200
      8 H2          15.1890    16.9990    19.7580 hc         1 LIG       0.040450
      9 H3          14.5780    15.5380    21.6480 hc         1 LIG       0.050700
     10 H4          18.4970    14.4600    20.2170 hc         1 LIG       0.041450
     11 C7          15.0200    17.7260    14.7260 ca         1 LIG      -0.064300
     12 C8          14.7010    16.3550    14.7670 ca         1 LIG      -0.132000
     13 C9          14.9270    15.6130    15.9430 ca         1 LIG      -0.128500
     14 C10         15.4730    16.2370    17.0860 ca         1 LIG      -0.135000
     15 C11         15.7900    17.6130    17.0380 ca         1 LIG      -0.128500
     16 C12         15.5640    18.3540    15.8620 ca         1 LIG      -0.132000
     17 H5          17.7630    14.9070    17.8680 hc         1 LIG       0.038200
     18 H6          15.3630    14.4110    18.1590 hc         1 LIG       0.041450
     19 H7          13.8430    15.9850    19.2990 hc         1 LIG       0.041450
     20 H8          14.7200    14.1140    20.6480 hc         1 LIG       0.040450
     21 H9          16.9980    15.9920    21.4470 hc         1 LIG       0.040450
     22 H10         16.7590    14.3590    22.0200 hc         1 LIG       0.040450
     23 H11         17.1520    13.4450    19.7600 hc         1 LIG       0.041450
     24 H12         14.8460    18.2940    13.8240 ha         1 LIG       0.131500
     25 H13         14.2830    15.8710    13.8970 ha         1 LIG       0.130000
     26 H14         14.6780    14.5620    15.9620 ha         1 LIG       0.129000
     27 H15         16.2080    18.1060    17.9030 ha         1 LIG       0.129000
     28 H16         15.8090    19.4060    15.8320 ha         1 LIG       0.131500
@<TRIPOS>BOND
     1     1     2 1
     2     1     6 1
     3     1     7 1
     4     1    17 1
     5     2     3 1
     6     2    14 1
     7     2    18 1
     8     3     4 1
     9     3     8 1
    10     3    19 1
    11     4     5 1
    12     4     9 1
    13     4    20 1
    14     5     6 1
    15     5    21 1
    16     5    22 1
    17     6    10 1
    18     6    23 1
    19    11    12 ar
    20    11    16 ar
    21    11    24 1
    22    12    13 ar
    23    12    25 1
    24    13    14 ar
    25    13    26 1
    26    14    15 ar
    27    15    16 ar
    28    15    27 1
    29    16    28 1
@<TRIPOS>SUBSTRUCTURE
     1 LIG         1 TEMP              0 ****  ****    0 ROOT
