@<TRIPOS>MOLECULE
LIG
   28    29     1     0     0
SMALL
bcc


@<TRIPOS>ATOM
      1 F            0.8870     0.0240    -0.1210 f          1 LIG      -0.238300
      2 C            2.2400     0.0420     0.0560 c3         1 LIG       0.138600
      3 C1           2.7670    -1.3720    -0.1690 c3         1 LIG      -0.107400
      4 C2           2.5900    -1.8190    -1.6210 c3         1 LIG      -0.110400
      5 C3           3.2100    -0.8170    -2.5920 c3         1 LIG       0.179600
      6 F1           4.5560    -0.8280    -2.3790 f          1 LIG      -0.233300
      7 C4           2.6450     0.5950    -2.3710 c3         1 LIG      -0.071400
      8 C5           2.8460     1.0490    -0.9160 c3         1 LIG       0.155600
      9 F2           4.1720     1.1700    -0.6250 f          1 LIG      -0.225300
     10 C6           3.1590     1.6050    -3.3850 ca         1 LIG      -0.095300
     11 C7           2.2620     2.2270    -4.2690 ca         1 LIG      -0.113000
     12 C8           2.7150     3.1560    -5.2090 ca         1 LIG      -0.133000
     13 C9           4.0680     3.4770    -5.2780 ca         1 LIG      -0.123000
     14 C10          4.9690     2.8700    -4.4080 ca         1 LIG      -0.133000
     15 C11          4.5180     1.9400    -3.4690 ca         1 LIG      -0.113000
     16 H            2.4360     0.3470     1.0890 h1         1 LIG       0.066700
     17 H1           2.2310    -2.0710     0.4840 hc         1 LIG       0.068700
     18 H2           3.8290    -1.4160     0.1010 hc         1 LIG       0.068700
     19 H3           1.5230    -1.9380    -1.8420 hc         1 LIG       0.062200
     20 H4           3.0660    -2.7970    -1.7490 hc         1 LIG       0.062200
     21 H5           3.0430    -1.1460    -3.6230 h1         1 LIG       0.060700
     22 H6           1.5590     0.5190    -2.5260 hc         1 LIG       0.079700
     23 H7           2.3860     2.0320    -0.7640 h1         1 LIG       0.070700
     24 H8           1.2000     1.9950    -4.2370 ha         1 LIG       0.142000
     25 H9           2.0100     3.6290    -5.8880 ha         1 LIG       0.133000
     26 H10          4.4200     4.2000    -6.0090 ha         1 LIG       0.132000
     27 H11          6.0260     3.1170    -4.4580 ha         1 LIG       0.133000
     28 H12          5.2430     1.4780    -2.8000 ha         1 LIG       0.142000
@<TRIPOS>BOND
     1     1     2 1   
     2     2     3 1   
     3     2     8 1   
     4     2    16 1   
     5     3     4 1   
     6     3    17 1   
     7     3    18 1   
     8     4     5 1   
     9     4    19 1   
    10     4    20 1   
    11     5     6 1   
    12     5     7 1   
    13     5    21 1   
    14     7     8 1   
    15     7    10 1   
    16     7    22 1   
    17     8     9 1   
    18     8    23 1   
    19    10    11 ar  
    20    10    15 ar  
    21    11    12 ar  
    22    11    24 1   
    23    12    13 ar  
    24    12    25 1   
    25    13    14 ar  
    26    13    26 1   
    27    14    15 ar  
    28    14    27 1   
    29    15    28 1   
@<TRIPOS>SUBSTRUCTURE
     1 LIG         1 TEMP              0 ****  ****    0 ROOT
