@<TRIPOS>MOLECULE
LIG
   28    29     1     0     0
SMALL

@<TRIPOS>ATOM
      1 C1           5.0780    10.3670    15.4790 c3         0 LIG       -0.069400
      2 C2           4.8210    10.8830    14.0530 c3         0 LIG       -0.076900
      3 C3           5.1920    12.3660    13.8910 c3         0 LIG       -0.075400
      4 C4           4.5500    13.2770    14.9500 c3         0 LIG       -0.076900
      5 C5           4.9270    12.7010    16.3250 c3         0 LIG       -0.069400
      6 C6           4.4240    11.2650    16.5410 c3         0 LIG       -0.017400
      7 C7           5.8130     8.2730    10.6930 ca         0 LIG       -0.135000
      8 C8           4.4950     8.5890    11.0400 ca         0 LIG       -0.128500
      9 C9           4.1940     9.3840    12.1500 ca         0 LIG       -0.132000
     10 C10          5.2120     9.9630    12.9140 ca         0 LIG       -0.064300
     11 C11          6.5300     9.6900    12.5380 ca         0 LIG       -0.132000
     12 C12          6.8280     8.8260    11.4800 ca         0 LIG       -0.128500
     13 H1           6.1350    10.1600    15.6460 hc         0 LIG        0.040450
     14 H2           6.2590    12.5780    13.9550 hc         0 LIG        0.040450
     15 H3           4.9600    14.2770    14.8050 hc         0 LIG        0.041450
     16 H4           4.6840    10.9620    17.5550 hc         0 LIG        0.041450
     17 H5           4.6990     9.3480    15.6270 hc         0 LIG        0.038200
     18 H6           3.7260    10.9290    14.1090 hc         0 LIG        0.038200
     19 H7           4.7710    12.5580    12.8970 hc         0 LIG        0.041450
     20 H8           3.4850    13.4250    14.7340 hc         0 LIG        0.041450
     21 H9           6.0180    12.7830    16.4080 hc         0 LIG        0.040450
     22 H10          4.5110    13.4400    17.0210 hc         0 LIG        0.040450
     23 H11          3.3390    11.2050    16.3940 hc         0 LIG        0.050700
     24 H12          5.9660     7.6030     9.8540 ha         0 LIG        0.130000
     25 H13          3.6570     8.1020    10.5500 ha         0 LIG        0.129000
     26 H14          3.1520     9.6270    12.3380 ha         0 LIG        0.131500
     27 H15          7.3790    10.0250    13.1280 ha         0 LIG        0.131500
     28 H16          7.8690     8.5350    11.3620 ha         0 LIG        0.129000
@<TRIPOS>BOND
     1     1     2 1
     2     1     6 1
     3     1    13 1
     4     1    17 1
     5     2     3 1
     6     2    10 1
     7     2    18 1
     8     3     4 1
     9     3    14 1
    10     3    19 1
    11     4     5 1
    12     4    15 1
    13     4    20 1
    14     5     6 1
    15     5    21 1
    16     5    22 1
    17     6    16 1
    18     6    23 1
    19     7     8 ar
    20     7    12 ar
    21     7    24 1
    22     8     9 ar
    23     8    25 1
    24     9    10 ar
    25     9    26 1
    26    10    11 ar
    27    11    12 ar
    28    11    27 1
    29    12    28 1
@<TRIPOS>SUBSTRUCTURE
     1 LIG         1 TEMP              0 ****  ****    0 ROOT
