@<TRIPOS>MOLECULE
mol_e
28   29    1
SMALL
USER_CHARGES


@<TRIPOS>ATOM
      1 C1         17.2511   15.3745   18.7374 C.3       1 LIG         0.0000 
      2 C2         15.7493   15.5130   18.3795 C.3       1 LIG         0.0000 
      3 C3         14.9174   16.0166   19.5857 C.3       1 LIG         0.0000 
      4 C4         15.1239   15.0885   20.7995 C.3       1 LIG         0.0000 
      5 C5         16.6113   14.9530   21.1718 C.3       1 LIG         0.0000 
      6 C6         17.4238   14.4552   19.9629 C.3       1 LIG         0.0000 
      7 F1         17.7883   16.5650   19.0115 F         1 LIG         0.0000 
      8 F2         15.2728   17.2586   19.9210 F         1 LIG         0.0000 
      9 F3         14.4115   15.5146   21.8419 F         1 LIG         0.0000 
     10 F4         18.7126   14.3305   20.2780 F         1 LIG         0.0000 
     11 C7         14.9932   17.6936   14.6832 C.ar      1 LIG         0.0000 
     12 C8         14.6499   16.3325   14.7867 C.ar      1 LIG         0.0000 
     13 C9         14.8966   15.6315   15.9831 C.ar      1 LIG         0.0000 
     14 C10        15.4885   16.2856   17.0876 C.ar      1 LIG         0.0000 
     15 C11        15.8271   17.6528   16.9751 C.ar      1 LIG         0.0000 
     16 C12        15.5816   18.3531   15.7784 C.ar      1 LIG         0.0000 
     17 H1         17.8086   14.9770   17.8887 H         1 LIG         0.0000 
     18 H2         15.3997   14.4988   18.1823 H         1 LIG         0.0000 
     19 H3         13.8596   16.0618   19.3243 H         1 LIG         0.0000 
     20 H4         14.7197   14.1020   20.5695 H         1 LIG         0.0000 
     21 H5         16.9976   15.9173   21.5051 H         1 LIG         0.0000 
     22 H6         16.7270   14.2660   22.0103 H         1 LIG         0.0000 
     23 H7         17.1008   13.4466   19.7028 H         1 LIG         0.0000 
     24 H8         14.8046   18.2319   13.7656 H         1 LIG         0.0000 
     25 H9         14.1969   15.8263   13.9467 H         1 LIG         0.0000 
     26 H10        14.6249   14.5876   16.0405 H         1 LIG         0.0000 
     27 H11        16.2774   18.1753   17.8077 H         1 LIG         0.0000 
     28 H12        15.8456   19.3981   15.7029 H         1 LIG         0.0000 
@<TRIPOS>BOND
     1    1    2 1    
     2    1    6 1    
     3    1    7 1    
     4    1   17 1    
     5    2    3 1    
     6    2   14 1    
     7    2   18 1    
     8    3    4 1    
     9    3    8 1    
    10    3   19 1    
    11    4    5 1    
    12    4    9 1    
    13    4   20 1    
    14    5    6 1    
    15    5   21 1    
    16    5   22 1    
    17    6   10 1    
    18    6   23 1    
    19   11   12 ar   
    20   11   16 ar   
    21   11   24 1    
    22   12   13 ar   
    23   12   25 1    
    24   13   14 ar   
    25   13   26 1    
    26   14   15 ar   
    27   15   16 ar   
    28   15   27 1    
    29   16   28 1    
@<TRIPOS>SUBSTRUCTURE
     1 LIG         1 GROUP             0 X     ****    0 ROOT    
