@<TRIPOS>MOLECULE
LIG
   28    29     1     0     0
SMALL
bcc


@<TRIPOS>ATOM
      1 C1           0.5270    -1.7340     0.1610 c3       900 LIG       0.150600
      2 C2          -0.9120    -1.4690    -0.3340 c3       900 LIG       0.148600
      3 C3          -0.6520     1.0000     0.2170 c3       900 LIG      -0.079400
      4 C4           0.7880     0.7400     0.7130 c3       900 LIG      -0.076400
      5 C5           1.0160    -0.7040     1.1950 c3       900 LIG      -0.043400
      6 C6          -1.5620    -0.2360     0.3160 c3       900 LIG      -0.109400
      7 F1           0.6120    -3.0020     0.6990 f        900 LIG      -0.226300
      8 F2          -1.6980    -2.5800    -0.1090 f        900 LIG      -0.229300
      9 C7           5.2140    -1.3390     2.0480 ca       900 LIG      -0.130000
     10 C8           4.5150    -0.3050     2.6920 ca       900 LIG      -0.126500
     11 C9           3.1540    -0.0990     2.4160 ca       900 LIG      -0.127000
     12 C10          2.4910    -0.9270     1.4950 ca       900 LIG      -0.074300
     13 C11          3.1900    -1.9610     0.8510 ca       900 LIG      -0.127000
     14 C12          4.5520    -2.1670     1.1270 ca       900 LIG      -0.126500
     15 H1           1.2040    -1.7280    -0.6950 h1       900 LIG       0.059700
     16 H4          -1.0950     1.8250     0.7760 hc       900 LIG       0.047200
     17 H5           1.0330     1.4340     1.5180 hc       900 LIG       0.051200
     18 H6           1.4870     0.9610    -0.0940 hc       900 LIG       0.051200
     19 H8           0.4920    -0.8600     2.1380 hc       900 LIG       0.077700
     20 H9          -1.7790    -0.4480     1.3640 hc       900 LIG       0.061200
     21 H10         -2.5250    -0.0300    -0.1540 hc       900 LIG       0.061200
     22 H11         -0.8940    -1.3330    -1.4170 h1       900 LIG       0.055700
     23 H12         -0.6140     1.3320    -0.8210 hc       900 LIG       0.047200
     24 H7           6.2840    -1.5010     2.2660 ha       900 LIG       0.133000
     25 H2           5.0360     0.3460     3.4160 ha       900 LIG       0.132500
     26 H3           2.6050     0.7140     2.9210 ha       900 LIG       0.133000
     27 H13          2.6700    -2.6120     0.1280 ha       900 LIG       0.133000
     28 H14          5.1010    -2.9800     0.6220 ha       900 LIG       0.132500
@<TRIPOS>BOND
     1     1     2 1   
     2     1     5 1   
     3     1     7 1   
     4     1    15 1   
     5     2     6 1   
     6     2     8 1   
     7     2    22 1   
     8     3     4 1   
     9     3     6 1   
    10     3    16 1   
    11     3    23 1   
    12     4     5 1   
    13     4    17 1   
    14     4    18 1   
    15     5    12 1   
    16     5    19 1   
    17     6    20 1   
    18     6    21 1   
    19     9    10 ar  
    20     9    14 ar  
    21     9    24 1   
    22    10    11 ar  
    23    10    25 1   
    24    11    12 ar  
    25    11    26 1   
    26    12    13 ar  
    27    13    14 ar  
    28    13    27 1   
    29    14    28 1   
@<TRIPOS>SUBSTRUCTURE
     1 LIG         1 TEMP              0 ****  ****    0 ROOT
